!-Generator IDFEditor 1.54
!-Option SortedOrder

!-NOTE: All comments with '!-' are ignored by the IDFEditor and are generated automatically.
!-      Use '!' comments if they need to be retained when using the IDFEditor.


!-   ===========  ALL OBJECTS IN CLASS: VERSION ===========

Version,
    24.1;                    !- Version Identifier


!-   ===========  ALL OBJECTS IN CLASS: SIMULATIONCONTROL ===========

SimulationControl,
    Yes,                     !- Do Zone Sizing Calculation
    No,                      !- Do System Sizing Calculation
    No,                      !- Do Plant Sizing Calculation
    No,                      !- Run Simulation for Sizing Periods
    Yes,                     !- Run Simulation for Weather File Run Periods
    ,                        !- Do HVAC Sizing Simulation for Sizing Periods
    ;                        !- Maximum Number of HVAC Sizing Simulation Passes


!-   ===========  ALL OBJECTS IN CLASS: BUILDING ===========

Building,
    Building 1,              !- Name
    ,                        !- North Axis {deg}
    ,                        !- Terrain
    ,                        !- Loads Convergence Tolerance Value {W}
    ,                        !- Temperature Convergence Tolerance Value {deltaC}
    ,                        !- Solar Distribution
    ,                        !- Maximum Number of Warmup Days
    ;                        !- Minimum Number of Warmup Days


!-   ===========  ALL OBJECTS IN CLASS: TIMESTEP ===========

Timestep,
    6;                       !- Number of Timesteps per Hour


!-   ===========  ALL OBJECTS IN CLASS: SITE:LOCATION ===========

Site:Location,
    Site 1,                  !- Name
    0,                       !- Latitude {deg}
    0,                       !- Longitude {deg}
    0,                       !- Time Zone {hr}
    0;                       !- Elevation {m}


!-   ===========  ALL OBJECTS IN CLASS: SIZINGPERIOD:DESIGNDAY ===========

SizingPeriod:DesignDay,
    CHICAGO_IL_USA Annual Heating 99% Design Conditions DB,  !- Name
    1,                       !- Month
    21,                      !- Day of Month
    WinterDesignDay,         !- Day Type
    -17.3,                   !- Maximum Dry-Bulb Temperature {C}
    0.0,                     !- Daily Dry-Bulb Temperature Range {deltaC}
    ,                        !- Dry-Bulb Temperature Range Modifier Type
    ,                        !- Dry-Bulb Temperature Range Modifier Day Schedule Name
    Wetbulb,                 !- Humidity Condition Type
    -17.3,                   !- Wetbulb or DewPoint at Maximum Dry-Bulb {C}
    ,                        !- Humidity Condition Day Schedule Name
    ,                        !- Humidity Ratio at Maximum Dry-Bulb {kgWater/kgDryAir}
    ,                        !- Enthalpy at Maximum Dry-Bulb {J/kg}
    ,                        !- Daily Wet-Bulb Temperature Range {deltaC}
    99063.,                  !- Barometric Pressure {Pa}
    4.9,                     !- Wind Speed {m/s}
    270,                     !- Wind Direction {deg}
    No,                      !- Rain Indicator
    No,                      !- Snow Indicator
    No,                      !- Daylight Saving Time Indicator
    ASHRAEClearSky,          !- Solar Model Indicator
    ,                        !- Beam Solar Day Schedule Name
    ,                        !- Diffuse Solar Day Schedule Name
    ,                        !- ASHRAE Clear Sky Optical Depth for Beam Irradiance (taub) {dimensionless}
    ,                        !- ASHRAE Clear Sky Optical Depth for Diffuse Irradiance (taud) {dimensionless}
    0.0;                     !- Sky Clearness

! CHICAGO_IL_USA Annual Cooling 1% Design Conditions, MaxDB=  31.5°C MCWB=  23.0°C
SizingPeriod:DesignDay,
    CHICAGO_IL_USA Annual Cooling 1% Design Conditions DB/MCWB,  !- Name
    7,                       !- Month
    21,                      !- Day of Month
    SummerDesignDay,         !- Day Type
    31.5,                    !- Maximum Dry-Bulb Temperature {C}
    10.7,                    !- Daily Dry-Bulb Temperature Range {deltaC}
    ,                        !- Dry-Bulb Temperature Range Modifier Type
    ,                        !- Dry-Bulb Temperature Range Modifier Day Schedule Name
    Wetbulb,                 !- Humidity Condition Type
    23.0,                    !- Wetbulb or DewPoint at Maximum Dry-Bulb {C}
    ,                        !- Humidity Condition Day Schedule Name
    ,                        !- Humidity Ratio at Maximum Dry-Bulb {kgWater/kgDryAir}
    ,                        !- Enthalpy at Maximum Dry-Bulb {J/kg}
    ,                        !- Daily Wet-Bulb Temperature Range {deltaC}
    99063.,                  !- Barometric Pressure {Pa}
    5.3,                     !- Wind Speed {m/s}
    230,                     !- Wind Direction {deg}
    No,                      !- Rain Indicator
    No,                      !- Snow Indicator
    No,                      !- Daylight Saving Time Indicator
    ASHRAEClearSky,          !- Solar Model Indicator
    ,                        !- Beam Solar Day Schedule Name
    ,                        !- Diffuse Solar Day Schedule Name
    ,                        !- ASHRAE Clear Sky Optical Depth for Beam Irradiance (taub) {dimensionless}
    ,                        !- ASHRAE Clear Sky Optical Depth for Diffuse Irradiance (taud) {dimensionless}
    1.0;                     !- Sky Clearness


!-   ===========  ALL OBJECTS IN CLASS: RUNPERIOD ===========

RunPeriod,
    Run Period 1,            !- Name
    1,                       !- Begin Month
    1,                       !- Begin Day of Month
    2009,                    !- Begin Year
    12,                      !- End Month
    31,                      !- End Day of Month
    2009,                    !- End Year
    Thursday,                !- Day of Week for Start Day
    No,                      !- Use Weather File Holidays and Special Days
    No,                      !- Use Weather File Daylight Saving Period
    No,                      !- Apply Weekend Holiday Rule
    Yes,                     !- Use Weather File Rain Indicators
    Yes;                     !- Use Weather File Snow Indicators


!-   ===========  ALL OBJECTS IN CLASS: SCHEDULETYPELIMITS ===========

ScheduleTypeLimits,
    Humidity,                !- Name
    0,                       !- Lower Limit Value
    100,                     !- Upper Limit Value
    CONTINUOUS;              !- Numeric Type

ScheduleTypeLimits,
    Fractional 1,            !- Name
    0,                       !- Lower Limit Value
    1,                       !- Upper Limit Value
    Continuous;              !- Numeric Type

ScheduleTypeLimits,
    OnOff,                   !- Name
    0,                       !- Lower Limit Value
    1,                       !- Upper Limit Value
    Discrete;                !- Numeric Type

ScheduleTypeLimits,
    Any Number;              !- Name


!-   ===========  ALL OBJECTS IN CLASS: SCHEDULE:COMPACT ===========

Schedule:Compact,
    humidifying Relative Humidity Sch,  !- Name
    Humidity,                !- Schedule Type Limits Name
    Through: 12/31,          !- Field 1
    For: Alldays,            !- Field 2
    Until: 24:00,            !- Field 3
    72.0;                    !- Field 4

Schedule:Compact,
    dehumidifying Relative Humidity Sch,  !- Name
    Humidity,                !- Schedule Type Limits Name
    Through: 12/31,          !- Field 1
    For: Alldays,            !- Field 2
    Until: 24:00,            !- Field 3
    78.0;                    !- Field 4

Schedule:Compact,
    on12off12,               !- Name
    Any Number,              !- Schedule Type Limits Name
    THROUGH: 12/31,          !- Field 1
    FOR: AllDays,            !- Field 2
    UNTIL: 12:00,            !- Field 3
    0,                       !- Field 4
    Until: 24:00,            !- Field 5
     .5;                     !- Field 6

Schedule:Compact,
    on16off8,                !- Name
    Any Number,              !- Schedule Type Limits Name
    THROUGH: 12/31,          !- Field 1
    FOR: AllDays,            !- Field 2
    UNTIL: 16:00,            !- Field 3
    1,                       !- Field 4
    Until: 24:00,            !- Field 5
    0;                       !- Field 6


!-   ===========  ALL OBJECTS IN CLASS: SCHEDULE:CONSTANT ===========

Schedule:Constant,
    Always On Discrete,      !- Name
    OnOff,                   !- Schedule Type Limits Name
    1;                       !- Hourly Value

Schedule:Constant,
    Always Off Discrete,     !- Name
    OnOff,                   !- Schedule Type Limits Name
    0;                       !- Hourly Value

Schedule:Constant,
    Always On Continuous,    !- Name
    Fractional 1,            !- Schedule Type Limits Name
    1;                       !- Hourly Value


!-   ===========  ALL OBJECTS IN CLASS: MATERIAL ===========

Material,
    1/2IN Gypsum,            !- Name
    Smooth,                  !- Roughness
    0.0127,                  !- Thickness {m}
    0.16,                    !- Conductivity {W/m-K}
    784.9,                   !- Density {kg/m3}
    830.000000000001,        !- Specific Heat {J/kg-K}
    0.9,                     !- Thermal Absorptance
    0.4,                     !- Solar Absorptance
    0.4;                     !- Visible Absorptance

Material,
    1IN Stucco,              !- Name
    Smooth,                  !- Roughness
    0.0253,                  !- Thickness {m}
    0.691799999999999,       !- Conductivity {W/m-K}
    1858,                    !- Density {kg/m3}
    836.999999999999,        !- Specific Heat {J/kg-K}
    0.9,                     !- Thermal Absorptance
    0.92,                    !- Solar Absorptance
    0.92;                    !- Visible Absorptance

Material,
    8IN Concrete HW,         !- Name
    MediumRough,             !- Roughness
    0.2033,                  !- Thickness {m}
    1.72959999999999,        !- Conductivity {W/m-K}
    2242.99999999999,        !- Density {kg/m3}
    836.999999999999,        !- Specific Heat {J/kg-K}
    0.9,                     !- Thermal Absorptance
    0.65,                    !- Solar Absorptance
    0.65;                    !- Visible Absorptance

Material,
    F08 Metal surface,       !- Name
    Smooth,                  !- Roughness
    0.0008,                  !- Thickness {m}
    45.2800000000001,        !- Conductivity {W/m-K}
    7823.99999999999,        !- Density {kg/m3}
    500,                     !- Specific Heat {J/kg-K}
    0.9,                     !- Thermal Absorptance
    0.7,                     !- Solar Absorptance
    0.7;                     !- Visible Absorptance

Material,
    F16 Acoustic tile,       !- Name
    MediumSmooth,            !- Roughness
    0.0191,                  !- Thickness {m}
    0.06,                    !- Conductivity {W/m-K}
    368,                     !- Density {kg/m3}
    590.000000000002,        !- Specific Heat {J/kg-K}
    0.9,                     !- Thermal Absorptance
    0.3,                     !- Solar Absorptance
    0.3;                     !- Visible Absorptance

Material,
    G01a 19mm gypsum board,  !- Name
    MediumSmooth,            !- Roughness
    0.019,                   !- Thickness {m}
    0.16,                    !- Conductivity {W/m-K}
    800,                     !- Density {kg/m3}
    1090,                    !- Specific Heat {J/kg-K}
    0.9,                     !- Thermal Absorptance
    0.4,                     !- Solar Absorptance
    0.4;                     !- Visible Absorptance

Material,
    G05 25mm wood,           !- Name
    MediumSmooth,            !- Roughness
    0.0254,                  !- Thickness {m}
    0.15,                    !- Conductivity {W/m-K}
    608,                     !- Density {kg/m3}
    1630,                    !- Specific Heat {J/kg-K}
    0.9,                     !- Thermal Absorptance
    0.5,                     !- Solar Absorptance
    0.5;                     !- Visible Absorptance

Material,
    I01 25mm insulation board,  !- Name
    MediumRough,             !- Roughness
    0.0254,                  !- Thickness {m}
    0.03,                    !- Conductivity {W/m-K}
    43,                      !- Density {kg/m3}
    1210,                    !- Specific Heat {J/kg-K}
    0.9,                     !- Thermal Absorptance
    0.6,                     !- Solar Absorptance
    0.6;                     !- Visible Absorptance

Material,
    M11 100mm lightweight concrete,  !- Name
    MediumRough,             !- Roughness
    0.1016,                  !- Thickness {m}
    0.53,                    !- Conductivity {W/m-K}
    1280,                    !- Density {kg/m3}
    840.000000000002,        !- Specific Heat {J/kg-K}
    0.9,                     !- Thermal Absorptance
    0.5,                     !- Solar Absorptance
    0.5;                     !- Visible Absorptance

Material,
    MAT-CC05 4 HW CONCRETE,  !- Name
    Rough,                   !- Roughness
    0.1016,                  !- Thickness {m}
    1.311,                   !- Conductivity {W/m-K}
    2240,                    !- Density {kg/m3}
    836.800000000001,        !- Specific Heat {J/kg-K}
    0.9,                     !- Thermal Absorptance
    0.85,                    !- Solar Absorptance
    0.85;                    !- Visible Absorptance

Material,
    Metal Decking,           !- Name
    MediumSmooth,            !- Roughness
    0.0015,                  !- Thickness {m}
    45.006,                  !- Conductivity {W/m-K}
    7680,                    !- Density {kg/m3}
    418.4,                   !- Specific Heat {J/kg-K}
    0.9,                     !- Thermal Absorptance
    0.6,                     !- Solar Absorptance
    0.6;                     !- Visible Absorptance

Material,
    Metal Roofing,           !- Name
    MediumSmooth,            !- Roughness
    0.0015,                  !- Thickness {m}
    45.006,                  !- Conductivity {W/m-K}
    7680,                    !- Density {kg/m3}
    418.4,                   !- Specific Heat {J/kg-K}
    0.9,                     !- Thermal Absorptance
    0.6,                     !- Solar Absorptance
    0.6;                     !- Visible Absorptance

Material,
    Roof Insulation [18],    !- Name
    MediumRough,             !- Roughness
    0.1693,                  !- Thickness {m}
    0.049,                   !- Conductivity {W/m-K}
    265,                     !- Density {kg/m3}
    836.800000000001,        !- Specific Heat {J/kg-K}
    0.9,                     !- Thermal Absorptance
    0.7,                     !- Solar Absorptance
    0.7;                     !- Visible Absorptance

Material,
    Roof Insulation [21],    !- Name
    MediumRough,             !- Roughness
    0.2105,                  !- Thickness {m}
    0.049,                   !- Conductivity {W/m-K}
    265,                     !- Density {kg/m3}
    836.800000000001,        !- Specific Heat {J/kg-K}
    0.9,                     !- Thermal Absorptance
    0.7,                     !- Solar Absorptance
    0.7;                     !- Visible Absorptance

Material,
    Roof Insulation [25],    !- Name
    MediumRough,             !- Roughness
    0.263,                   !- Thickness {m}
    0.049,                   !- Conductivity {W/m-K}
    265,                     !- Density {kg/m3}
    836.800000000001,        !- Specific Heat {J/kg-K}
    0.9,                     !- Thermal Absorptance
    0.7,                     !- Solar Absorptance
    0.7;                     !- Visible Absorptance

Material,
    Roof Insulation [26],    !- Name
    MediumRough,             !- Roughness
    0.2941,                  !- Thickness {m}
    0.049,                   !- Conductivity {W/m-K}
    265,                     !- Density {kg/m3}
    836.800000000001,        !- Specific Heat {J/kg-K}
    0.9,                     !- Thermal Absorptance
    0.7,                     !- Solar Absorptance
    0.7;                     !- Visible Absorptance

Material,
    Roof Membrane,           !- Name
    VeryRough,               !- Roughness
    0.0095,                  !- Thickness {m}
    0.16,                    !- Conductivity {W/m-K}
    1121.29,                 !- Density {kg/m3}
    1460,                    !- Specific Heat {J/kg-K}
    0.9,                     !- Thermal Absorptance
    0.7,                     !- Solar Absorptance
    0.7;                     !- Visible Absorptance

Material,
    Wall Insulation [31],    !- Name
    MediumRough,             !- Roughness
    0.0337000000000001,      !- Thickness {m}
    0.0432,                  !- Conductivity {W/m-K}
    91,                      !- Density {kg/m3}
    836.999999999999,        !- Specific Heat {J/kg-K}
    0.9,                     !- Thermal Absorptance
    0.5,                     !- Solar Absorptance
    0.5;                     !- Visible Absorptance

Material,
    Wall Insulation [35],    !- Name
    MediumRough,             !- Roughness
    0.0452,                  !- Thickness {m}
    0.0432,                  !- Conductivity {W/m-K}
    91,                      !- Density {kg/m3}
    836.999999999999,        !- Specific Heat {J/kg-K}
    0.9,                     !- Thermal Absorptance
    0.5,                     !- Solar Absorptance
    0.5;                     !- Visible Absorptance

Material,
    Wall Insulation [36],    !- Name
    MediumRough,             !- Roughness
    0.0565999999999999,      !- Thickness {m}
    0.0432,                  !- Conductivity {W/m-K}
    91,                      !- Density {kg/m3}
    836.999999999999,        !- Specific Heat {J/kg-K}
    0.9,                     !- Thermal Absorptance
    0.5,                     !- Solar Absorptance
    0.5;                     !- Visible Absorptance

Material,
    Wall Insulation [37],    !- Name
    MediumRough,             !- Roughness
    0.0680999999999999,      !- Thickness {m}
    0.0432,                  !- Conductivity {W/m-K}
    91,                      !- Density {kg/m3}
    836.999999999999,        !- Specific Heat {J/kg-K}
    0.9,                     !- Thermal Absorptance
    0.5,                     !- Solar Absorptance
    0.5;                     !- Visible Absorptance

Material,
    Wall Insulation [40],    !- Name
    MediumRough,             !- Roughness
    0.0793999999999999,      !- Thickness {m}
    0.0432,                  !- Conductivity {W/m-K}
    91,                      !- Density {kg/m3}
    836.999999999999,        !- Specific Heat {J/kg-K}
    0.9,                     !- Thermal Absorptance
    0.5,                     !- Solar Absorptance
    0.5;                     !- Visible Absorptance

Material,
    Wall Insulation [42],    !- Name
    MediumRough,             !- Roughness
    0.0913999999999999,      !- Thickness {m}
    0.0432,                  !- Conductivity {W/m-K}
    91,                      !- Density {kg/m3}
    836.999999999999,        !- Specific Heat {J/kg-K}
    0.9,                     !- Thermal Absorptance
    0.5,                     !- Solar Absorptance
    0.5;                     !- Visible Absorptance

Material,
    Wall Insulation [44],    !- Name
    MediumRough,             !- Roughness
    0.1104,                  !- Thickness {m}
    0.0432,                  !- Conductivity {W/m-K}
    91,                      !- Density {kg/m3}
    836.999999999999,        !- Specific Heat {J/kg-K}
    0.9,                     !- Thermal Absorptance
    0.5,                     !- Solar Absorptance
    0.5;                     !- Visible Absorptance


!-   ===========  ALL OBJECTS IN CLASS: MATERIAL:NOMASS ===========

Material:NoMass,
    R24ft2-F-h-BtuR4.2m2-K/W,!- Name
    Smooth,                  !- Roughness
    4.2,                     !- Thermal Resistance {m2-K/W}
    0.9,                     !- Thermal Absorptance
    0.7,                     !- Solar Absorptance
    0.7;                     !- Visible Absorptance

Material:NoMass,
    CP02 CARPET PAD,         !- Name
    Smooth,                  !- Roughness
    0.1,                     !- Thermal Resistance {m2-K/W}
    0.9,                     !- Thermal Absorptance
    0.8,                     !- Solar Absorptance
    0.8;                     !- Visible Absorptance


!-   ===========  ALL OBJECTS IN CLASS: MATERIAL:AIRGAP ===========

Material:AirGap,
    F04 Wall air space resistance,  !- Name
    0.15;                    !- Thermal Resistance {m2-K/W}

Material:AirGap,
    F05 Ceiling air space resistance,  !- Name
    0.18;                    !- Thermal Resistance {m2-K/W}


!-   ===========  ALL OBJECTS IN CLASS: CONSTRUCTION ===========

Construction,
    UL Class 1 Foam Insulation,  !- Name
    R24ft2-F-h-BtuR4.2m2-K/W;!- Outside Layer

Construction,
    Interior Ceiling,        !- Name
    M11 100mm lightweight concrete,  !- Outside Layer
    F05 Ceiling air space resistance,  !- Layer 2
    F16 Acoustic tile;       !- Layer 3

Construction,
    Interior Door,           !- Name
    G05 25mm wood;           !- Outside Layer

Construction,
    Interior Floor,          !- Name
    F16 Acoustic tile,       !- Outside Layer
    F05 Ceiling air space resistance,  !- Layer 2
    M11 100mm lightweight concrete;  !- Layer 3

Construction,
    Interior Partition,      !- Name
    G05 25mm wood;           !- Outside Layer

Construction,
    Interior Wall,           !- Name
    G01a 19mm gypsum board,  !- Outside Layer
    F04 Wall air space resistance,  !- Layer 2
    G01a 19mm gypsum board;  !- Layer 3


!-   ===========  ALL OBJECTS IN CLASS: CONSTRUCTION:AIRBOUNDARY ===========

Construction:AirBoundary,
    Air Wall,                !- Name
    None,                    !- Air Exchange Method
    0,                       !- Simple Mixing Air Changes per Hour {1/hr}
    ;                        !- Simple Mixing Schedule Name


!-   ===========  ALL OBJECTS IN CLASS: GLOBALGEOMETRYRULES ===========

GlobalGeometryRules,
    UpperLeftCorner,         !- Starting Vertex Position
    Counterclockwise,        !- Vertex Entry Direction
    Relative,                !- Coordinate System
    Relative,                !- Daylighting Reference Point Coordinate System
    Relative;                !- Rectangular Surface Coordinate System


!-   ===========  ALL OBJECTS IN CLASS: SPACE ===========

Space,
    Space 101,               !- Name
    Thermal Zone 1,          !- Zone Name
    ,                        !- Ceiling Height {m}
    ,                        !- Volume {m3}
    ,                        !- Floor Area {m2}
    189.1-2009 - Office - OpenOffice - CZ4-8;  !- Space Type


!-   ===========  ALL OBJECTS IN CLASS: SPACELIST ===========

SpaceList,
    189.1-2009 - Office - OpenOffice - CZ4-8,  !- Name
    Space 101;               !- Space 1 Name


!-   ===========  ALL OBJECTS IN CLASS: ZONE ===========

Zone,
    Thermal Zone 1,          !- Name
    ,                        !- Direction of Relative North {deg}
    3.2385,                  !- X Origin {m}
    0,                       !- Y Origin {m}
    0,                       !- Z Origin {m}
    ,                        !- Type
    1,                       !- Multiplier
    ,                        !- Ceiling Height {m}
    ,                        !- Volume {m3}
    ,                        !- Floor Area {m2}
    ,                        !- Zone Inside Convection Algorithm
    ,                        !- Zone Outside Convection Algorithm
    Yes;                     !- Part of Total Floor Area


!-   ===========  ALL OBJECTS IN CLASS: BUILDINGSURFACE:DETAILED ===========

BuildingSurface:Detailed,
    Ceiling,                 !- Name
    Roof,                    !- Surface Type
    UL Class 1 Foam Insulation,  !- Construction Name
    Thermal Zone 1,          !- Zone Name
    Space 101,               !- Space Name
    Adiabatic,               !- Outside Boundary Condition
    ,                        !- Outside Boundary Condition Object
    NoSun,                   !- Sun Exposure
    NoWind,                  !- Wind Exposure
    ,                        !- View Factor to Ground
    ,                        !- Number of Vertices
    0,                       !- Vertex 1 X-coordinate {m}
    0,                       !- Vertex 1 Y-coordinate {m}
    3.10515,                 !- Vertex 1 Z-coordinate {m}
    0,                       !- Vertex 2 X-coordinate {m}
    3.5306,                  !- Vertex 2 Y-coordinate {m}
    3.10515,                 !- Vertex 2 Z-coordinate {m}
    -3.2385,                 !- Vertex 3 X-coordinate {m}
    3.5306,                  !- Vertex 3 Y-coordinate {m}
    3.10515,                 !- Vertex 3 Z-coordinate {m}
    -3.2385,                 !- Vertex 4 X-coordinate {m}
    0,                       !- Vertex 4 Y-coordinate {m}
    3.10515;                 !- Vertex 4 Z-coordinate {m}

BuildingSurface:Detailed,
    Floor,                   !- Name
    Floor,                   !- Surface Type
    Interior Floor,          !- Construction Name
    Thermal Zone 1,          !- Zone Name
    Space 101,               !- Space Name
    Adiabatic,               !- Outside Boundary Condition
    ,                        !- Outside Boundary Condition Object
    NoSun,                   !- Sun Exposure
    NoWind,                  !- Wind Exposure
    ,                        !- View Factor to Ground
    ,                        !- Number of Vertices
    0,                       !- Vertex 1 X-coordinate {m}
    3.5306,                  !- Vertex 1 Y-coordinate {m}
    0,                       !- Vertex 1 Z-coordinate {m}
    0,                       !- Vertex 2 X-coordinate {m}
    0,                       !- Vertex 2 Y-coordinate {m}
    0,                       !- Vertex 2 Z-coordinate {m}
    -3.2385,                 !- Vertex 3 X-coordinate {m}
    0,                       !- Vertex 3 Y-coordinate {m}
    0,                       !- Vertex 3 Z-coordinate {m}
    -3.2385,                 !- Vertex 4 X-coordinate {m}
    3.5306,                  !- Vertex 4 Y-coordinate {m}
    0;                       !- Vertex 4 Z-coordinate {m}

BuildingSurface:Detailed,
    Surface 2,               !- Name
    Wall,                    !- Surface Type
    UL Class 1 Foam Insulation,  !- Construction Name
    Thermal Zone 1,          !- Zone Name
    Space 101,               !- Space Name
    Adiabatic,               !- Outside Boundary Condition
    ,                        !- Outside Boundary Condition Object
    NoSun,                   !- Sun Exposure
    NoWind,                  !- Wind Exposure
    ,                        !- View Factor to Ground
    ,                        !- Number of Vertices
    -3.2385,                 !- Vertex 1 X-coordinate {m}
    0,                       !- Vertex 1 Y-coordinate {m}
    3.10515,                 !- Vertex 1 Z-coordinate {m}
    -3.2385,                 !- Vertex 2 X-coordinate {m}
    0,                       !- Vertex 2 Y-coordinate {m}
    0,                       !- Vertex 2 Z-coordinate {m}
    0,                       !- Vertex 3 X-coordinate {m}
    0,                       !- Vertex 3 Y-coordinate {m}
    0,                       !- Vertex 3 Z-coordinate {m}
    0,                       !- Vertex 4 X-coordinate {m}
    0,                       !- Vertex 4 Y-coordinate {m}
    3.10515;                 !- Vertex 4 Z-coordinate {m}

BuildingSurface:Detailed,
    Surface 3,               !- Name
    Wall,                    !- Surface Type
    UL Class 1 Foam Insulation,  !- Construction Name
    Thermal Zone 1,          !- Zone Name
    Space 101,               !- Space Name
    Adiabatic,               !- Outside Boundary Condition
    ,                        !- Outside Boundary Condition Object
    NoSun,                   !- Sun Exposure
    NoWind,                  !- Wind Exposure
    ,                        !- View Factor to Ground
    ,                        !- Number of Vertices
    -3.2385,                 !- Vertex 1 X-coordinate {m}
    3.5306,                  !- Vertex 1 Y-coordinate {m}
    3.10515,                 !- Vertex 1 Z-coordinate {m}
    -3.2385,                 !- Vertex 2 X-coordinate {m}
    3.5306,                  !- Vertex 2 Y-coordinate {m}
    0,                       !- Vertex 2 Z-coordinate {m}
    -3.2385,                 !- Vertex 3 X-coordinate {m}
    0,                       !- Vertex 3 Y-coordinate {m}
    0,                       !- Vertex 3 Z-coordinate {m}
    -3.2385,                 !- Vertex 4 X-coordinate {m}
    0,                       !- Vertex 4 Y-coordinate {m}
    3.10515;                 !- Vertex 4 Z-coordinate {m}

BuildingSurface:Detailed,
    Surface 4,               !- Name
    Wall,                    !- Surface Type
    UL Class 1 Foam Insulation,  !- Construction Name
    Thermal Zone 1,          !- Zone Name
    Space 101,               !- Space Name
    Adiabatic,               !- Outside Boundary Condition
    ,                        !- Outside Boundary Condition Object
    NoSun,                   !- Sun Exposure
    NoWind,                  !- Wind Exposure
    ,                        !- View Factor to Ground
    ,                        !- Number of Vertices
    0,                       !- Vertex 1 X-coordinate {m}
    3.5306,                  !- Vertex 1 Y-coordinate {m}
    3.10515,                 !- Vertex 1 Z-coordinate {m}
    0,                       !- Vertex 2 X-coordinate {m}
    3.5306,                  !- Vertex 2 Y-coordinate {m}
    0,                       !- Vertex 2 Z-coordinate {m}
    -3.2385,                 !- Vertex 3 X-coordinate {m}
    3.5306,                  !- Vertex 3 Y-coordinate {m}
    0,                       !- Vertex 3 Z-coordinate {m}
    -3.2385,                 !- Vertex 4 X-coordinate {m}
    3.5306,                  !- Vertex 4 Y-coordinate {m}
    3.10515;                 !- Vertex 4 Z-coordinate {m}
