!-Generator IDFEditor 1.54
!-Option SortedOrder

!-NOTE: All comments with '!-' are ignored by the IDFEditor and are generated automatically.
!-      Use '!' comments if they need to be retained when using the IDFEditor.


!-   ===========  ALL OBJECTS IN CLASS: VERSION ===========

Version,
    24.1;                    !- Version Identifier


!-   ===========  ALL OBJECTS IN CLASS: SIMULATIONCONTROL ===========

SimulationControl,
    Yes,                     !- Do Zone Sizing Calculation
    No,                      !- Do System Sizing Calculation
    No,                      !- Do Plant Sizing Calculation
    Yes,                     !- Run Simulation for Sizing Periods
    Yes,                     !- Run Simulation for Weather File Run Periods
    ,                        !- Do HVAC Sizing Simulation for Sizing Periods
    ;                        !- Maximum Number of HVAC Sizing Simulation Passes


!-   ===========  ALL OBJECTS IN CLASS: BUILDING ===========

Building,
    Building 1,              !- Name
    ,                        !- North Axis {deg}
    ,                        !- Terrain
    ,                        !- Loads Convergence Tolerance Value {W}
    ,                        !- Temperature Convergence Tolerance Value {deltaC}
    ,                        !- Solar Distribution
    ,                        !- Maximum Number of Warmup Days
    ;                        !- Minimum Number of Warmup Days


!-   ===========  ALL OBJECTS IN CLASS: TIMESTEP ===========

Timestep,
    6;                       !- Number of Timesteps per Hour


!-   ===========  ALL OBJECTS IN CLASS: SITE:LOCATION ===========

Site:Location,
    Site 1,                  !- Name
    0,                       !- Latitude {deg}
    0,                       !- Longitude {deg}
    0,                       !- Time Zone {hr}
    0;                       !- Elevation {m}


!-   ===========  ALL OBJECTS IN CLASS: SIZINGPERIOD:DESIGNDAY ===========

SizingPeriod:DesignDay,
    CHICAGO_IL_USA Annual Heating 99% Design Conditions DB,  !- Name
    1,                       !- Month
    21,                      !- Day of Month
    WinterDesignDay,         !- Day Type
    -17.3,                   !- Maximum Dry-Bulb Temperature {C}
    0.0,                     !- Daily Dry-Bulb Temperature Range {deltaC}
    ,                        !- Dry-Bulb Temperature Range Modifier Type
    ,                        !- Dry-Bulb Temperature Range Modifier Day Schedule Name
    Wetbulb,                 !- Humidity Condition Type
    -17.3,                   !- Wetbulb or DewPoint at Maximum Dry-Bulb {C}
    ,                        !- Humidity Condition Day Schedule Name
    ,                        !- Humidity Ratio at Maximum Dry-Bulb {kgWater/kgDryAir}
    ,                        !- Enthalpy at Maximum Dry-Bulb {J/kg}
    ,                        !- Daily Wet-Bulb Temperature Range {deltaC}
    99063.,                  !- Barometric Pressure {Pa}
    4.9,                     !- Wind Speed {m/s}
    270,                     !- Wind Direction {deg}
    No,                      !- Rain Indicator
    No,                      !- Snow Indicator
    No,                      !- Daylight Saving Time Indicator
    ASHRAEClearSky,          !- Solar Model Indicator
    ,                        !- Beam Solar Day Schedule Name
    ,                        !- Diffuse Solar Day Schedule Name
    ,                        !- ASHRAE Clear Sky Optical Depth for Beam Irradiance (taub) {dimensionless}
    ,                        !- ASHRAE Clear Sky Optical Depth for Diffuse Irradiance (taud) {dimensionless}
    0.0;                     !- Sky Clearness

! CHICAGO_IL_USA Annual Cooling 1% Design Conditions, MaxDB=  31.5°C MCWB=  23.0°C
SizingPeriod:DesignDay,
    CHICAGO_IL_USA Annual Cooling 1% Design Conditions DB/MCWB,  !- Name
    7,                       !- Month
    21,                      !- Day of Month
    SummerDesignDay,         !- Day Type
    31.5,                    !- Maximum Dry-Bulb Temperature {C}
    10.7,                    !- Daily Dry-Bulb Temperature Range {deltaC}
    ,                        !- Dry-Bulb Temperature Range Modifier Type
    ,                        !- Dry-Bulb Temperature Range Modifier Day Schedule Name
    Wetbulb,                 !- Humidity Condition Type
    23.0,                    !- Wetbulb or DewPoint at Maximum Dry-Bulb {C}
    ,                        !- Humidity Condition Day Schedule Name
    ,                        !- Humidity Ratio at Maximum Dry-Bulb {kgWater/kgDryAir}
    ,                        !- Enthalpy at Maximum Dry-Bulb {J/kg}
    ,                        !- Daily Wet-Bulb Temperature Range {deltaC}
    99063.,                  !- Barometric Pressure {Pa}
    5.3,                     !- Wind Speed {m/s}
    230,                     !- Wind Direction {deg}
    No,                      !- Rain Indicator
    No,                      !- Snow Indicator
    No,                      !- Daylight Saving Time Indicator
    ASHRAEClearSky,          !- Solar Model Indicator
    ,                        !- Beam Solar Day Schedule Name
    ,                        !- Diffuse Solar Day Schedule Name
    ,                        !- ASHRAE Clear Sky Optical Depth for Beam Irradiance (taub) {dimensionless}
    ,                        !- ASHRAE Clear Sky Optical Depth for Diffuse Irradiance (taud) {dimensionless}
    1.0;                     !- Sky Clearness


!-   ===========  ALL OBJECTS IN CLASS: RUNPERIOD ===========

RunPeriod,
    Run Period 1,            !- Name
    1,                       !- Begin Month
    1,                       !- Begin Day of Month
    2009,                    !- Begin Year
    12,                      !- End Month
    31,                      !- End Day of Month
    2009,                    !- End Year
    Thursday,                !- Day of Week for Start Day
    No,                      !- Use Weather File Holidays and Special Days
    No,                      !- Use Weather File Daylight Saving Period
    No,                      !- Apply Weekend Holiday Rule
    Yes,                     !- Use Weather File Rain Indicators
    Yes;                     !- Use Weather File Snow Indicators


!-   ===========  ALL OBJECTS IN CLASS: SCHEDULETYPELIMITS ===========

ScheduleTypeLimits,
    Fraction,                !- Name
    0,                       !- Lower Limit Value
    1,                       !- Upper Limit Value
    CONTINUOUS;              !- Numeric Type

ScheduleTypeLimits,
    ActivityLevel,           !- Name
    0,                       !- Lower Limit Value
    ,                        !- Upper Limit Value
    Continuous,              !- Numeric Type
    activitylevel;           !- Unit Type

ScheduleTypeLimits,
    ActivityLevel 12,        !- Name
    0,                       !- Lower Limit Value
    ,                        !- Upper Limit Value
    Continuous,              !- Numeric Type
    activitylevel;           !- Unit Type

ScheduleTypeLimits,
    ActivityLevel 13,        !- Name
    0,                       !- Lower Limit Value
    ,                        !- Upper Limit Value
    Continuous,              !- Numeric Type
    activitylevel;           !- Unit Type

ScheduleTypeLimits,
    ActivityLevel 5,         !- Name
    0,                       !- Lower Limit Value
    ,                        !- Upper Limit Value
    Continuous,              !- Numeric Type
    activitylevel;           !- Unit Type

ScheduleTypeLimits,
    Always On Discrete Limits,  !- Name
    0,                       !- Lower Limit Value
    1,                       !- Upper Limit Value
    Discrete,                !- Numeric Type
    availability;            !- Unit Type

ScheduleTypeLimits,
    Fractional,              !- Name
    0,                       !- Lower Limit Value
    1,                       !- Upper Limit Value
    Continuous;              !- Numeric Type

ScheduleTypeLimits,
    Fractional 1,            !- Name
    0,                       !- Lower Limit Value
    1,                       !- Upper Limit Value
    Continuous;              !- Numeric Type

ScheduleTypeLimits,
    OnOff,                   !- Name
    0,                       !- Lower Limit Value
    1,                       !- Upper Limit Value
    Discrete,                !- Numeric Type
    availability;            !- Unit Type

ScheduleTypeLimits,
    Temperature 11,          !- Name
    ,                        !- Lower Limit Value
    ,                        !- Upper Limit Value
    Continuous,              !- Numeric Type
    temperature;             !- Unit Type

ScheduleTypeLimits,
    Temperature 3,           !- Name
    ,                        !- Lower Limit Value
    ,                        !- Upper Limit Value
    Continuous,              !- Numeric Type
    temperature;             !- Unit Type

ScheduleTypeLimits,
    Temperature 36,          !- Name
    ,                        !- Lower Limit Value
    ,                        !- Upper Limit Value
    Continuous,              !- Numeric Type
    temperature;             !- Unit Type

ScheduleTypeLimits,
    Temperature 37,          !- Name
    ,                        !- Lower Limit Value
    ,                        !- Upper Limit Value
    Continuous,              !- Numeric Type
    temperature;             !- Unit Type

ScheduleTypeLimits,
    Temperature 4,           !- Name
    ,                        !- Lower Limit Value
    ,                        !- Upper Limit Value
    Continuous,              !- Numeric Type
    temperature;             !- Unit Type

ScheduleTypeLimits,
    Temperature 5,           !- Name
    ,                        !- Lower Limit Value
    ,                        !- Upper Limit Value
    Continuous,              !- Numeric Type
    temperature;             !- Unit Type


!-   ===========  ALL OBJECTS IN CLASS: SCHEDULE:DAY:INTERVAL ===========

Schedule:Day:Interval,
    Office Bldg Light Default Schedule,  !- Name
    Fraction,                !- Schedule Type Limits Name
    No,                      !- Interpolate to Timestep
    05:00,                   !- Time 1 {hh:mm}
    0.05,                    !- Value Until Time 1
    07:00,                   !- Time 2 {hh:mm}
    0.1,                     !- Value Until Time 2
    08:00,                   !- Time 3 {hh:mm}
    0.3,                     !- Value Until Time 3
    17:00,                   !- Time 4 {hh:mm}
    0.9,                     !- Value Until Time 4
    18:00,                   !- Time 5 {hh:mm}
    0.7,                     !- Value Until Time 5
    20:00,                   !- Time 6 {hh:mm}
    0.5,                     !- Value Until Time 6
    22:00,                   !- Time 7 {hh:mm}
    0.3,                     !- Value Until Time 7
    23:00,                   !- Time 8 {hh:mm}
    0.1,                     !- Value Until Time 8
    24:00,                   !- Time 9 {hh:mm}
    0.05;                    !- Value Until Time 9

Schedule:Day:Interval,
    Office Bldg Light Rule 2 Day Schedule,  !- Name
    Fraction,                !- Schedule Type Limits Name
    No,                      !- Interpolate to Timestep
    06:00,                   !- Time 1 {hh:mm}
    0.05,                    !- Value Until Time 1
    08:00,                   !- Time 2 {hh:mm}
    0.1,                     !- Value Until Time 2
    14:00,                   !- Time 3 {hh:mm}
    0.5,                     !- Value Until Time 3
    17:00,                   !- Time 4 {hh:mm}
    0.15,                    !- Value Until Time 4
    24:00,                   !- Time 5 {hh:mm}
    0.05;                    !- Value Until Time 5

Schedule:Day:Interval,
    Office Bldg Light Rule 1 Day Schedule,  !- Name
    Fraction,                !- Schedule Type Limits Name
    No,                      !- Interpolate to Timestep
    24:00,                   !- Time 1 {hh:mm}
    0.05;                    !- Value Until Time 1

Schedule:Day:Interval,
    Office Bldg Light Summer Design Day,  !- Name
    Fraction,                !- Schedule Type Limits Name
    No,                      !- Interpolate to Timestep
    24:00,                   !- Time 1 {hh:mm}
    1;                       !- Value Until Time 1

Schedule:Day:Interval,
    Office Bldg Light Winter Design Day,  !- Name
    Fraction,                !- Schedule Type Limits Name
    No,                      !- Interpolate to Timestep
    24:00,                   !- Time 1 {hh:mm}
    0;                       !- Value Until Time 1

Schedule:Day:Interval,
    Office Bldg Occ Default Schedule,  !- Name
    Fraction,                !- Schedule Type Limits Name
    No,                      !- Interpolate to Timestep
    06:00,                   !- Time 1 {hh:mm}
    0,                       !- Value Until Time 1
    07:00,                   !- Time 2 {hh:mm}
    0.100000001490116,       !- Value Until Time 2
    08:00,                   !- Time 3 {hh:mm}
    0.200000002980232,       !- Value Until Time 3
    12:00,                   !- Time 4 {hh:mm}
    0.850000023841858,       !- Value Until Time 4
    13:00,                   !- Time 5 {hh:mm}
    0.5,                     !- Value Until Time 5
    17:00,                   !- Time 6 {hh:mm}
    0.850000023841858,       !- Value Until Time 6
    18:00,                   !- Time 7 {hh:mm}
    0.699999988079071,       !- Value Until Time 7
    20:00,                   !- Time 8 {hh:mm}
    0.400000005960464,       !- Value Until Time 8
    22:00,                   !- Time 9 {hh:mm}
    0.100000001490116,       !- Value Until Time 9
    24:00,                   !- Time 10 {hh:mm}
    0.0500000007450581;      !- Value Until Time 10

Schedule:Day:Interval,
    Office Bldg Occ Rule 2 Day Schedule,  !- Name
    Fraction,                !- Schedule Type Limits Name
    No,                      !- Interpolate to Timestep
    06:00,                   !- Time 1 {hh:mm}
    0,                       !- Value Until Time 1
    08:00,                   !- Time 2 {hh:mm}
    0.100000001490116,       !- Value Until Time 2
    14:00,                   !- Time 3 {hh:mm}
    0.400000005960464,       !- Value Until Time 3
    17:00,                   !- Time 4 {hh:mm}
    0.100000001490116,       !- Value Until Time 4
    24:00,                   !- Time 5 {hh:mm}
    0;                       !- Value Until Time 5

Schedule:Day:Interval,
    Office Bldg Occ Rule 1 Day Schedule,  !- Name
    Fraction,                !- Schedule Type Limits Name
    No,                      !- Interpolate to Timestep
    24:00,                   !- Time 1 {hh:mm}
    0;                       !- Value Until Time 1

Schedule:Day:Interval,
    Office Bldg Occ Summer Design Day,  !- Name
    Fraction,                !- Schedule Type Limits Name
    No,                      !- Interpolate to Timestep
    06:00,                   !- Time 1 {hh:mm}
    0,                       !- Value Until Time 1
    22:00,                   !- Time 2 {hh:mm}
    1,                       !- Value Until Time 2
    24:00,                   !- Time 3 {hh:mm}
    0.05;                    !- Value Until Time 3

Schedule:Day:Interval,
    Office Bldg Occ Winter Design Day,  !- Name
    Fraction,                !- Schedule Type Limits Name
    No,                      !- Interpolate to Timestep
    24:00,                   !- Time 1 {hh:mm}
    0;                       !- Value Until Time 1

Schedule:Day:Interval,
    Office Activity Default Schedule,  !- Name
    ActivityLevel,           !- Schedule Type Limits Name
    No,                      !- Interpolate to Timestep
    24:00,                   !- Time 1 {hh:mm}
    132;                     !- Value Until Time 1

Schedule:Day:Interval,
    Office Activity Summer Design Day,  !- Name
    ActivityLevel,           !- Schedule Type Limits Name
    No,                      !- Interpolate to Timestep
    24:00,                   !- Time 1 {hh:mm}
    132;                     !- Value Until Time 1

Schedule:Day:Interval,
    Office Activity Winter Design Day,  !- Name
    ActivityLevel,           !- Schedule Type Limits Name
    No,                      !- Interpolate to Timestep
    24:00,                   !- Time 1 {hh:mm}
    132;                     !- Value Until Time 1

Schedule:Day:Interval,
    Office Bldg Equip Default Schedule,  !- Name
    Fraction,                !- Schedule Type Limits Name
    No,                      !- Interpolate to Timestep
    08:00,                   !- Time 1 {hh:mm}
    0.4,                     !- Value Until Time 1
    12:00,                   !- Time 2 {hh:mm}
    0.9,                     !- Value Until Time 2
    13:00,                   !- Time 3 {hh:mm}
    0.8,                     !- Value Until Time 3
    17:00,                   !- Time 4 {hh:mm}
    0.9,                     !- Value Until Time 4
    18:00,                   !- Time 5 {hh:mm}
    0.8,                     !- Value Until Time 5
    20:00,                   !- Time 6 {hh:mm}
    0.6,                     !- Value Until Time 6
    22:00,                   !- Time 7 {hh:mm}
    0.5,                     !- Value Until Time 7
    24:00,                   !- Time 8 {hh:mm}
    0.4;                     !- Value Until Time 8

Schedule:Day:Interval,
    Office Bldg Equip Rule 2 Day Schedule,  !- Name
    Fraction,                !- Schedule Type Limits Name
    No,                      !- Interpolate to Timestep
    06:00,                   !- Time 1 {hh:mm}
    0.3,                     !- Value Until Time 1
    08:00,                   !- Time 2 {hh:mm}
    0.4,                     !- Value Until Time 2
    14:00,                   !- Time 3 {hh:mm}
    0.5,                     !- Value Until Time 3
    17:00,                   !- Time 4 {hh:mm}
    0.35,                    !- Value Until Time 4
    24:00,                   !- Time 5 {hh:mm}
    0.3;                     !- Value Until Time 5

Schedule:Day:Interval,
    Office Bldg Equip Rule 1 Day Schedule,  !- Name
    Fraction,                !- Schedule Type Limits Name
    No,                      !- Interpolate to Timestep
    24:00,                   !- Time 1 {hh:mm}
    0.3;                     !- Value Until Time 1

Schedule:Day:Interval,
    Office Bldg Equip Summer Design Day,  !- Name
    Fraction,                !- Schedule Type Limits Name
    No,                      !- Interpolate to Timestep
    24:00,                   !- Time 1 {hh:mm}
    1;                       !- Value Until Time 1

Schedule:Day:Interval,
    Office Bldg Equip Winter Design Day,  !- Name
    Fraction,                !- Schedule Type Limits Name
    No,                      !- Interpolate to Timestep
    24:00,                   !- Time 1 {hh:mm}
    0;                       !- Value Until Time 1

Schedule:Day:Interval,
    Large Office Activity Default Schedule,  !- Name
    ActivityLevel 5,         !- Schedule Type Limits Name
    No,                      !- Interpolate to Timestep
    24:00,                   !- Time 1 {hh:mm}
    120;                     !- Value Until Time 1

Schedule:Day:Interval,
    Large Office Activity Summer Design Day,  !- Name
    ActivityLevel 5,         !- Schedule Type Limits Name
    No,                      !- Interpolate to Timestep
    24:00,                   !- Time 1 {hh:mm}
    120;                     !- Value Until Time 1

Schedule:Day:Interval,
    Large Office Activity Winter Design Day,  !- Name
    ActivityLevel 5,         !- Schedule Type Limits Name
    No,                      !- Interpolate to Timestep
    24:00,                   !- Time 1 {hh:mm}
    120;                     !- Value Until Time 1

Schedule:Day:Interval,
    Large Office Bldg Equip Default Schedule,  !- Name
    Fractional,              !- Schedule Type Limits Name
    No,                      !- Interpolate to Timestep
    08:00,                   !- Time 1 {hh:mm}
    0.4,                     !- Value Until Time 1
    12:00,                   !- Time 2 {hh:mm}
    0.9,                     !- Value Until Time 2
    13:00,                   !- Time 3 {hh:mm}
    0.8,                     !- Value Until Time 3
    17:00,                   !- Time 4 {hh:mm}
    0.9,                     !- Value Until Time 4
    18:00,                   !- Time 5 {hh:mm}
    0.8,                     !- Value Until Time 5
    20:00,                   !- Time 6 {hh:mm}
    0.6,                     !- Value Until Time 6
    22:00,                   !- Time 7 {hh:mm}
    0.5,                     !- Value Until Time 7
    24:00,                   !- Time 8 {hh:mm}
    0.4;                     !- Value Until Time 8

Schedule:Day:Interval,
    Large Office Bldg Equip Rule 1 Day Schedule,  !- Name
    Fractional,              !- Schedule Type Limits Name
    No,                      !- Interpolate to Timestep
    24:00,                   !- Time 1 {hh:mm}
    0.3;                     !- Value Until Time 1

Schedule:Day:Interval,
    Large Office Bldg Equip Rule 2 Day Schedule,  !- Name
    Fractional,              !- Schedule Type Limits Name
    No,                      !- Interpolate to Timestep
    06:00,                   !- Time 1 {hh:mm}
    0.3,                     !- Value Until Time 1
    08:00,                   !- Time 2 {hh:mm}
    0.4,                     !- Value Until Time 2
    14:00,                   !- Time 3 {hh:mm}
    0.5,                     !- Value Until Time 3
    17:00,                   !- Time 4 {hh:mm}
    0.35,                    !- Value Until Time 4
    24:00,                   !- Time 5 {hh:mm}
    0.3;                     !- Value Until Time 5

Schedule:Day:Interval,
    Large Office Bldg Equip Summer Design Day,  !- Name
    Fractional,              !- Schedule Type Limits Name
    No,                      !- Interpolate to Timestep
    24:00,                   !- Time 1 {hh:mm}
    1;                       !- Value Until Time 1

Schedule:Day:Interval,
    Large Office Bldg Equip Winter Design Day,  !- Name
    Fractional,              !- Schedule Type Limits Name
    No,                      !- Interpolate to Timestep
    24:00,                   !- Time 1 {hh:mm}
    0;                       !- Value Until Time 1

Schedule:Day:Interval,
    Large Office Bldg Light Default Schedule,  !- Name
    Fractional,              !- Schedule Type Limits Name
    No,                      !- Interpolate to Timestep
    05:00,                   !- Time 1 {hh:mm}
    0.05,                    !- Value Until Time 1
    07:00,                   !- Time 2 {hh:mm}
    0.1,                     !- Value Until Time 2
    08:00,                   !- Time 3 {hh:mm}
    0.3,                     !- Value Until Time 3
    17:00,                   !- Time 4 {hh:mm}
    0.9,                     !- Value Until Time 4
    18:00,                   !- Time 5 {hh:mm}
    0.7,                     !- Value Until Time 5
    20:00,                   !- Time 6 {hh:mm}
    0.5,                     !- Value Until Time 6
    22:00,                   !- Time 7 {hh:mm}
    0.3,                     !- Value Until Time 7
    23:00,                   !- Time 8 {hh:mm}
    0.1,                     !- Value Until Time 8
    24:00,                   !- Time 9 {hh:mm}
    0.05;                    !- Value Until Time 9

Schedule:Day:Interval,
    Large Office Bldg Light Rule 1 Day Schedule,  !- Name
    Fractional,              !- Schedule Type Limits Name
    No,                      !- Interpolate to Timestep
    24:00,                   !- Time 1 {hh:mm}
    0.05;                    !- Value Until Time 1

Schedule:Day:Interval,
    Large Office Bldg Light Rule 2 Day Schedule,  !- Name
    Fractional,              !- Schedule Type Limits Name
    No,                      !- Interpolate to Timestep
    06:00,                   !- Time 1 {hh:mm}
    0.05,                    !- Value Until Time 1
    08:00,                   !- Time 2 {hh:mm}
    0.1,                     !- Value Until Time 2
    14:00,                   !- Time 3 {hh:mm}
    0.5,                     !- Value Until Time 3
    17:00,                   !- Time 4 {hh:mm}
    0.15,                    !- Value Until Time 4
    24:00,                   !- Time 5 {hh:mm}
    0.05;                    !- Value Until Time 5

Schedule:Day:Interval,
    Large Office Bldg Light Summer Design Day,  !- Name
    Fractional,              !- Schedule Type Limits Name
    No,                      !- Interpolate to Timestep
    24:00,                   !- Time 1 {hh:mm}
    1;                       !- Value Until Time 1

Schedule:Day:Interval,
    Large Office Bldg Light Winter Design Day,  !- Name
    Fractional,              !- Schedule Type Limits Name
    No,                      !- Interpolate to Timestep
    24:00,                   !- Time 1 {hh:mm}
    0;                       !- Value Until Time 1

Schedule:Day:Interval,
    Large Office Bldg Occ Default Schedule,  !- Name
    Fractional,              !- Schedule Type Limits Name
    No,                      !- Interpolate to Timestep
    06:00,                   !- Time 1 {hh:mm}
    0,                       !- Value Until Time 1
    07:00,                   !- Time 2 {hh:mm}
    0.1,                     !- Value Until Time 2
    08:00,                   !- Time 3 {hh:mm}
    0.2,                     !- Value Until Time 3
    12:00,                   !- Time 4 {hh:mm}
    0.95,                    !- Value Until Time 4
    13:00,                   !- Time 5 {hh:mm}
    0.5,                     !- Value Until Time 5
    17:00,                   !- Time 6 {hh:mm}
    0.95,                    !- Value Until Time 6
    18:00,                   !- Time 7 {hh:mm}
    0.7,                     !- Value Until Time 7
    20:00,                   !- Time 8 {hh:mm}
    0.4,                     !- Value Until Time 8
    22:00,                   !- Time 9 {hh:mm}
    0.1,                     !- Value Until Time 9
    24:00,                   !- Time 10 {hh:mm}
    0.05;                    !- Value Until Time 10

Schedule:Day:Interval,
    Large Office Bldg Occ Rule 1 Day Schedule,  !- Name
    Fractional,              !- Schedule Type Limits Name
    No,                      !- Interpolate to Timestep
    24:00,                   !- Time 1 {hh:mm}
    0;                       !- Value Until Time 1

Schedule:Day:Interval,
    Large Office Bldg Occ Rule 2 Day Schedule,  !- Name
    Fractional,              !- Schedule Type Limits Name
    No,                      !- Interpolate to Timestep
    06:00,                   !- Time 1 {hh:mm}
    0,                       !- Value Until Time 1
    08:00,                   !- Time 2 {hh:mm}
    0.1,                     !- Value Until Time 2
    14:00,                   !- Time 3 {hh:mm}
    0.5,                     !- Value Until Time 3
    17:00,                   !- Time 4 {hh:mm}
    0.1,                     !- Value Until Time 4
    24:00,                   !- Time 5 {hh:mm}
    0;                       !- Value Until Time 5

Schedule:Day:Interval,
    Large Office Bldg Occ Summer Design Day,  !- Name
    Fractional,              !- Schedule Type Limits Name
    No,                      !- Interpolate to Timestep
    06:00,                   !- Time 1 {hh:mm}
    0,                       !- Value Until Time 1
    22:00,                   !- Time 2 {hh:mm}
    1,                       !- Value Until Time 2
    24:00,                   !- Time 3 {hh:mm}
    0.05;                    !- Value Until Time 3

Schedule:Day:Interval,
    Large Office Bldg Occ Winter Design Day,  !- Name
    Fractional,              !- Schedule Type Limits Name
    No,                      !- Interpolate to Timestep
    24:00,                   !- Time 1 {hh:mm}
    0;                       !- Value Until Time 1

Schedule:Day:Interval,
    Large Office ClgSetp Default Schedule,  !- Name
    Temperature 5,           !- Schedule Type Limits Name
    No,                      !- Interpolate to Timestep
    06:00,                   !- Time 1 {hh:mm}
    26.7,                    !- Value Until Time 1
    22:00,                   !- Time 2 {hh:mm}
    24,                      !- Value Until Time 2
    24:00,                   !- Time 3 {hh:mm}
    26.7;                    !- Value Until Time 3

Schedule:Day:Interval,
    Large Office ClgSetp Rule 1 Day Schedule,  !- Name
    Temperature 5,           !- Schedule Type Limits Name
    No,                      !- Interpolate to Timestep
    24:00,                   !- Time 1 {hh:mm}
    26.7;                    !- Value Until Time 1

Schedule:Day:Interval,
    Large Office ClgSetp Rule 2 Day Schedule,  !- Name
    Temperature 5,           !- Schedule Type Limits Name
    No,                      !- Interpolate to Timestep
    06:00,                   !- Time 1 {hh:mm}
    26.7,                    !- Value Until Time 1
    18:00,                   !- Time 2 {hh:mm}
    24,                      !- Value Until Time 2
    24:00,                   !- Time 3 {hh:mm}
    26.7;                    !- Value Until Time 3

Schedule:Day:Interval,
    Large Office ClgSetp Summer Design Day,  !- Name
    Temperature 5,           !- Schedule Type Limits Name
    No,                      !- Interpolate to Timestep
    06:00,                   !- Time 1 {hh:mm}
    26.7,                    !- Value Until Time 1
    22:00,                   !- Time 2 {hh:mm}
    24,                      !- Value Until Time 2
    24:00,                   !- Time 3 {hh:mm}
    26.7;                    !- Value Until Time 3

Schedule:Day:Interval,
    Large Office ClgSetp Winter Design Day,  !- Name
    Temperature 5,           !- Schedule Type Limits Name
    No,                      !- Interpolate to Timestep
    24:00,                   !- Time 1 {hh:mm}
    26.7;                    !- Value Until Time 1

Schedule:Day:Interval,
    Large Office HtgSetp Default Schedule,  !- Name
    Temperature 3,           !- Schedule Type Limits Name
    No,                      !- Interpolate to Timestep